LTspice 26.0.1 for Windows
Circuit: C:\Users\dw2wrigh\SynologyDrive\Documents\Research\Altium\Projects\Noise Toaster\Documents\Analysis\Amplifier TB.net
Start Time: Fri Apr 10 16:26:25 2026
Options:method=gear
solver = Normal
Maximum thread count: 24
tnom = 27
temp = 27
method = Gear
Compress1stOrder = true
Compress2ndOrder = true
Direct Newton iteration succeeded in finding operating point.
Total elapsed time: 0.046 seconds.

Files loaded:
C:\Users\dw2wrigh\SynologyDrive\Documents\Research\Altium\Projects\Noise Toaster\Documents\Analysis\Amplifier TB.net
C:\Users\dw2wrigh\SynologyDrive\Documents\Research\Altium\Projects\Noise Toaster\Documents\Analysis\LM386.sub

