LTspice 26.0.1 for Windows
Circuit: Z:\Documents\Research\Altium\Projects\Noise Toaster\Documents\Analysis\VCF TB.net
Start Time: Mon Apr  6 19:31:47 2026
Options:method=gear

.step vdc1=-1
solver = Normal
Maximum thread count: 16
tnom = 27
temp = 27
method = Gear
Direct Newton iteration succeeded in finding operating point.

.step vdc1=-0.9
Direct Newton iteration succeeded in finding operating point.

.step vdc1=-0.8
Direct Newton iteration succeeded in finding operating point.

.step vdc1=-0.7
Direct Newton iteration succeeded in finding operating point.

.step vdc1=-0.6
Direct Newton iteration succeeded in finding operating point.

.step vdc1=-0.5
Direct Newton iteration succeeded in finding operating point.

.step vdc1=-0.4
Direct Newton iteration succeeded in finding operating point.

.step vdc1=-0.3
Direct Newton iteration succeeded in finding operating point.

.step vdc1=-0.2
Direct Newton iteration succeeded in finding operating point.

.step vdc1=-0.1
Direct Newton iteration succeeded in finding operating point.

.step vdc1=0
Direct Newton iteration succeeded in finding operating point.

.step vdc1=0.1
Direct Newton iteration succeeded in finding operating point.

.step vdc1=0.2
Direct Newton iteration succeeded in finding operating point.

.step vdc1=0.3
Direct Newton iteration succeeded in finding operating point.

.step vdc1=0.4
Direct Newton iteration succeeded in finding operating point.

.step vdc1=0.5
Direct Newton iteration succeeded in finding operating point.

.step vdc1=0.6
Direct Newton iteration succeeded in finding operating point.

.step vdc1=0.7
Direct Newton iteration succeeded in finding operating point.

.step vdc1=0.8
Direct Newton iteration succeeded in finding operating point.

.step vdc1=0.9
Direct Newton iteration succeeded in finding operating point.

.step vdc1=1
Direct Newton iteration succeeded in finding operating point.

.step vdc1=1.1
Direct Newton iteration succeeded in finding operating point.

.step vdc1=1.2
Direct Newton iteration succeeded in finding operating point.

.step vdc1=1.3
Direct Newton iteration succeeded in finding operating point.

.step vdc1=1.4
Direct Newton iteration succeeded in finding operating point.

.step vdc1=1.5
Direct Newton iteration succeeded in finding operating point.

.step vdc1=1.6
Direct Newton iteration succeeded in finding operating point.

.step vdc1=1.7
Direct Newton iteration succeeded in finding operating point.

.step vdc1=1.8
Direct Newton iteration succeeded in finding operating point.

.step vdc1=1.9
Direct Newton iteration succeeded in finding operating point.

.step vdc1=2
Direct Newton iteration succeeded in finding operating point.

.step vdc1=2.1
Direct Newton iteration succeeded in finding operating point.

.step vdc1=2.2
Direct Newton iteration succeeded in finding operating point.

.step vdc1=2.3
Direct Newton iteration succeeded in finding operating point.

.step vdc1=2.4
Direct Newton iteration succeeded in finding operating point.

.step vdc1=2.5
Direct Newton iteration succeeded in finding operating point.
Total elapsed time: 1.783 seconds.

Files loaded:
Z:\Documents\Research\Altium\Projects\Noise Toaster\Documents\Analysis\VCF TB.net
D:\Users\dw2wrigh\AppData\Local\LTspice\lib\cmp\standard.jft
D:\Users\dw2wrigh\AppData\Local\LTspice\lib\sub\LT1013.sub
Z:\Documents\Research\Altium\Projects\Noise Toaster\Documents\Analysis\spdt.sub


Measurement: gpk
  step	MAX(MAG(V(C)))	FROM	TO
     1	(-15.0667845887dB,0°)	0.1	1000000
     2	(-15.0667846075dB,0°)	0.1	1000000
     3	(-15.0667846267dB,0°)	0.1	1000000
     4	(-14.9095144341dB,0°)	0.1	1000000
     5	(-15.0858793392dB,0°)	0.1	1000000
     6	(-15.1514304274dB,0°)	0.1	1000000
     7	(-15.1848916923dB,0°)	0.1	1000000
     8	(-15.2059557003dB,0°)	0.1	1000000
     9	(-15.219982249dB,0°)	0.1	1000000
    10	(-15.2300817699dB,0°)	0.1	1000000
    11	(-15.2378269381dB,0°)	0.1	1000000
    12	(-15.2439489901dB,0°)	0.1	1000000
    13	(-15.2487691399dB,0°)	0.1	1000000
    14	(-15.2526915167dB,0°)	0.1	1000000
    15	(-15.2560072046dB,0°)	0.1	1000000
    16	(-15.258845806dB,0°)	0.1	1000000
    17	(-15.2611538883dB,0°)	0.1	1000000
    18	(-15.263172712dB,0°)	0.1	1000000
    19	(-15.2648198153dB,0°)	0.1	1000000
    20	(-15.2658340178dB,0°)	0.1	1000000
    21	(-15.2173056223dB,0°)	0.1	1000000
    22	(-15.1001630361dB,0°)	0.1	1000000
    23	(-14.9322313121dB,0°)	0.1	1000000
    24	(-14.7624173251dB,0°)	0.1	1000000
    25	(-14.534137783dB,0°)	0.1	1000000
    26	(-14.3088739778dB,0°)	0.1	1000000
    27	(-14.1008307682dB,0°)	0.1	1000000
    28	(-13.908356772dB,0°)	0.1	1000000
    29	(-13.7064450824dB,0°)	0.1	1000000
    30	(-13.4396974099dB,0°)	0.1	1000000
    31	(-13.1859339871dB,0°)	0.1	1000000
    32	(-12.9442495756dB,0°)	0.1	1000000
    33	(-12.7138273686dB,0°)	0.1	1000000
    34	(-12.4939275586dB,0°)	0.1	1000000
    35	(-12.2838777566dB,0°)	0.1	1000000
    36	(-12.0830649786dB,0°)	0.1	1000000

Measurement: fhi
  step	MAG(V(C))=0.707*gpk 
     1	36.7421428664
     2	36.7421414824
     3	36.7421400636
     4	216.886505821
     5	479.769979036
     6	748.717403853
     7	1026.4721308
     8	1314.51511604
     9	1616.94521199
    10	1935.40052657
    11	2275.92961455
    12	2647.3602992
    13	3040.75157362
    14	3459.57681525
    15	3921.45378166
    16	4356.58324297
    17	4821.81787322
    18	5266.94388203
    19	5636.0390091
    20	6016.45205554
    21	6377.03189529
    22	6576.65683823
    23	6719.72047162
    24	6840.51395952
    25	6911.78646564
    26	6970.89704064
    27	7026.8885548
    28	7079.88998915
    29	7118.59686266
    30	7118.36110116
    31	7118.46256037
    32	7118.88784838
    33	7119.62250193
    34	7120.65134248
    35	7121.95877243
    36	7123.52901744
